Plan Title=2D Area Only
Program Version=5.07
Short Identifier=2D Area Only                                                    
Simulation Date=02JAN1900,0000,04JAN1900,0300
Geom File=g01
Flow File=u01
Subcritical Flow
K Sum by GR= 0 
Std Step Tol= 0.003 
Critical Tol= 0.003 
Num of Std Step Trials= 20 
Max Error Tol= 0.1 
Flow Tol Ratio= 0.001 
Split Flow NTrial= 30 
Split Flow Tol= 0.006 
Split Flow Ratio= 0.02 
Log Output Level= 0 
Friction Slope Method= 1 
Unsteady Friction Slope Method= 2 
Unsteady Bridges Friction Slope Method= 1 
Parabolic Critical Depth
Global Vel Dist= 0 , 0 , 0 
Global Log Level= 0 
CheckData=True
Encroach Param=-1 ,0,0, 0 
Computation Interval=10SEC
Output Interval=5MIN
Instantaneous Interval=1HOUR
Mapping Interval=30MIN
Computation Time Step Use Courant=        0
Computation Time Step Use Time Series=    0
Computation Time Step Max Courant=
Computation Time Step Min Courant=
Computation Time Step Count To Double=0
Computation Time Step Max Doubling=0
Computation Time Step Max Halving=0
Computation Time Step Residence Courant=0
Run HTab=-1 
Run UNet=-1 
Run Sediment= 0 
Run PostProcess=-1 
Run WQNet= 0 
Run RASMapper= 0 
UNET Theta= 1 
UNET Theta Warmup= 1 
UNET ZTol= 0.003 
UNET ZSATol= 0.003 
UNET QTol=
UNET MxIter= 20 
UNET Max Iter WO Improvement= 0 
UNET MaxInSteps= 20 
UNET DtIC= 0 
UNET DtMin= 0 
UNET MaxCRTS= 20 
UNET WFStab= 2 
UNET SFStab= 1 
UNET WFX= 3 
UNET SFX= 1 
UNET 1D Methodology=Finite Difference
UNET DSS MLevel= 4 
UNET Pardiso=0
UNET DZMax Abort= 30.48 
UNET Use Existing IB Tables=-1 
UNET Froude Reduction=False
UNET Froude Limit= 1 
UNET Froude Power= 10 
UNET D1 Cores= 0 
UNET D2 Coriolis=0
UNET D2 Cores= 0 
UNET D2 Theta= 1 
UNET D2 Theta Warmup= 1 
UNET D2 Z Tol= 0.01 
UNET D2 Volume Tol= 0.003 
UNET D2 Max Iterations= 20 
UNET D2 Equation= 0 
UNET D2 TotalICTime=
UNET D2 RampUpFraction=0.5
UNET D2 TimeSlices= 1 
UNET D2 Eddy Viscosity=
UNET D2 BCVolumeCheck=0
UNET D2 Latitude=
UNET D2 Name=Muncie2D
UNET D2 Theta= 1 
UNET D2 Theta Warmup= 1 
UNET D2 Z Tol= 0.01 
UNET D2 Volume Tol= 0.003 
UNET D2 Max Iterations= 20 
UNET D2 Equation= 0 
UNET D2 TotalICTime=4
UNET D2 RampUpFraction=0.5
UNET D2 TimeSlices= 1 
UNET D2 Eddy Viscosity=
UNET D2 BCVolumeCheck=0
UNET D2 Latitude=
UNET D1D2 MaxIter= 20 
UNET D1D2 ZTol=0.01
UNET D1D2 QTol=0.1
UNET D1D2 MinQTol=1
DSS File=dss
Write IC File= 0 
Write IC File at Fixed DateTime=0
IC Time=,,
Write IC File Reoccurance=
Write IC File at Sim End=0
Echo Input=False
Echo Parameters=False
Echo Output=False
Write Detailed= 0 
Computation Level Output Depth=True
HDF Write Warmup=0
HDF Write Time Slices=0
HDF Flush=0
HDF Face Node Velocities=-1
HDF Compression= 1 
HDF Chunk Size= 1 
HDF Spatial Parts= 1 
HDF Use Max Rows=0
HDF Fixed Rows= 1 
Breach Loc=White           ,Muncie          ,13214   ,True,                
Breach Method= 0 
Breach Geom=182.88,30.48,287.3654,0.2,0.2,True,0.5,288.036,2,1.44
Breach Start=True,288.6456,,,False,,,0
Breach Progression= 2 
       0       0       1       1
Simplified Physical Breach Downcutting= 2 
       0       0       1       1
Simplified Physical Breach Widening= 2 
       0       0       1       1
Mass Wasting Options= 0 
Breach Use User Defined Growth Ratio=0
Breach User Defined Growth Ratio=1
DLBreach Methods=0,0
DLBreach SoilType=0
DLBreach Core SoilType=0
DLBreach Cover Option=0
Breach Loc=White           ,Muncie          ,12300   ,False,                
Breach Method= 0 
Breach Geom=,,,,,False,0.5,,,1.44
Breach Start=True,,,,False,,,0
Breach Progression= 2 
       0       0       1       1
Simplified Physical Breach Downcutting= 2 
       0       0       1       1
Simplified Physical Breach Widening= 2 
       0       0       1       1
Mass Wasting Options= 0 
Breach Use User Defined Growth Ratio=0
Breach User Defined Growth Ratio=1
DLBreach Methods=0,0
DLBreach SoilType=0
DLBreach Core SoilType=0
DLBreach Cover Option=0
Breach Loc=White           ,Muncie          ,9854    ,False,                
Breach Method= 0 
Breach Geom=,,,,,False,0.5,,,1.44
Breach Start=True,,,,False,,,0
Breach Progression= 2 
       0       0       1       1
Simplified Physical Breach Downcutting= 2 
       0       0       1       1
Simplified Physical Breach Widening= 2 
       0       0       1       1
Mass Wasting Options= 0 
Breach Use User Defined Growth Ratio=0
Breach User Defined Growth Ratio=1
DLBreach Methods=0,0
DLBreach SoilType=0
DLBreach Core SoilType=0
DLBreach Cover Option=0
Breach Loc=White           ,Muncie          ,9200    ,False,                
Breach Method= 0 
Breach Geom=,,,,,False,0.5,,,1.44
Breach Start=True,,,,False,,,0
Breach Progression= 2 
       0       0       1       1
Simplified Physical Breach Downcutting= 2 
       0       0       1       1
Simplified Physical Breach Widening= 2 
       0       0       1       1
Mass Wasting Options= 0 
Breach Use User Defined Growth Ratio=0
Breach User Defined Growth Ratio=1
DLBreach Methods=0,0
DLBreach SoilType=0
DLBreach Core SoilType=0
DLBreach Cover Option=0
Breach Loc=White           ,Muncie          ,8000    ,False,                
Breach Method= 0 
Breach Geom=,,,,,False,0.5,,,1.44
Breach Start=True,,,,False,,,0
Breach Progression= 2 
       0       0       1       1
Simplified Physical Breach Downcutting= 2 
       0       0       1       1
Simplified Physical Breach Widening= 2 
       0       0       1       1
Mass Wasting Options= 0 
Breach Use User Defined Growth Ratio=0
Breach User Defined Growth Ratio=1
DLBreach Methods=0,0
DLBreach SoilType=0
DLBreach Core SoilType=0
DLBreach Cover Option=0
Breach Loc=White           ,Muncie          ,15323.14,False,                
Breach Method= 0 
Breach Geom=,,,,,False,0.5,,,1.44
Breach Start=True,,,,False,,,0
Breach Progression= 2 
       0       0       1       1
Simplified Physical Breach Downcutting= 2 
       0       0       1       1
Simplified Physical Breach Widening= 2 
       0       0       1       1
Mass Wasting Options= 0 
Breach Use User Defined Growth Ratio=0
Breach User Defined Growth Ratio=1
DLBreach Methods=0,0
DLBreach SoilType=0
DLBreach Core SoilType=0
DLBreach Cover Option=0
Breach Loc=White           ,Muncie          ,13859   ,False,                
Breach Method= 0 
Breach Geom=,,,,,False,0.5,,,1.44
Breach Start=True,,,,False,,,0
Breach Progression= 2 
       0       0       1       1
Simplified Physical Breach Downcutting= 2 
       0       0       1       1
Simplified Physical Breach Widening= 2 
       0       0       1       1
Mass Wasting Options= 0 
Breach Use User Defined Growth Ratio=0
Breach User Defined Growth Ratio=1
DLBreach Methods=0,0
DLBreach SoilType=0
DLBreach Core SoilType=0
DLBreach Cover Option=0
Calibration Method= 0 
Calibration Iterations= 100 
Calibration Max Change=0.05
Calibration Tolerance=0.01
Calibration Maximum=1.5
Calibration Minimum=0.5
Calibration Optimization Method= 0 
Calibration Window=,,,
WQ AD Non Conservative
WQ ULTIMATE=-1
WQ Max Comp Step=1HOUR
WQ Output Interval=15MIN
WQ Output Selected Increments= 0 
WQ Output face flow=0
WQ Output face velocity=0
WQ Output face area=0
WQ Output face dispersion=0
WQ Output cell volume=0
WQ Output cell surface area=0
WQ Output cell continuity=0
WQ Output cumulative cell continuity=0
WQ Output face conc=0
WQ Output face dconc_dx=0
WQ Output face courant=0
WQ Output face peclet=0
WQ Output face adv mass=0
WQ Output face disp mass=0
WQ Output cell mass=0
WQ Output cell source sink temp=0
WQ Output nsm pathways=0
WQ Output nsm derived pathways=0
WQ Output MaxMinRange=-1
WQ Daily Max Min Mean=-1
WQ Daily Range=0
WQ Daily Time=0
WQ Create Restart=0
WQ Fixed Restart=0
WQ Restart Simtime=
WQ Restart Date=
WQ Restart Hour=
WQ System Summary=0
WQ Write To DSS=0
WQ Use Fixed Temperature=0
WQ Fixed Temperature=
Sorting and Armoring Iterations= 10 
XS Update Threshold= 0.02 
Bed Roughness Predictor= 0 
Hydraulics Update Threshold= 0.02 
Energy Slope Method= 1 
Volume Change Method= 0 
Sediment Retention Method= 0 
XS Weighting Method= 0 
Number of US Weighted Cross Sections= 1 
Number of DS Weighted Cross Sections= 1 
Upstream XS Weight=0.25
Main XS Weight=0.5
Downstream XS Weight=0.25
Number of DS XS's Weighted with US Boundary= 1 
Upstream Boundary Weight= 1 
Weight of XSs Associated with US Boundary= 0 
Number of US XS's Weighted with DS Boundary= 1 
Downstream Boundary Weight= 0.5 
Weight of XSs Associated with DS Boundary= 0.5 
Percentile Method= 0 
Sediment Output Level= 4 
Mass or Volume Output= 0 
Output Increment Type= 1 
Profile and TS Output Increment= 10 
XS Output Flag= 0 
XS Output Increment= 10 
Write Gradation File= 0 
Read Gradation Hotstart= 0 
Gradation File Name=
Write HDF5 File= 0 
Write Binary Output= 1 
Write DSS Sediment File= 0 
SV Curve= 0 
Specific Gage Flag= 0 
ADH Filename=Muncie2DOnly_SI..bc
ADH Link=White           ,Muncie          ,13214   LS,3,Flow,-1
