Proj Title=Muncie 2D Area Only SI
Current Plan=p01
Default Exp/Contr=0.3,0.1
SI Units
Geom File=g01
Unsteady File=u01
Plan File=p01
Y Axis Title=Elevation
X Axis Title(PF)=Main Channel Distance
X Axis Title(XS)=Station
BEGIN DESCRIPTION:
Copyright (C) WEST Consultants 2015.  
This data set is modified from the original Muncie Data Set offered by the Hydrologic Engineering Center.  This model does not represent any real flood event-past, present, or future, and is strictly offered via The RAS Solution blog site for demonstration purposes only.  
www.therassolution.com
www.westconsultants.com

END DESCRIPTION:
DSS Start Date=01JAN1900
DSS Start Time=0100
DSS End Date=04JAN1900
DSS End Time=2400
DSS File=dss
DSS Export Filename=
DSS Export Rating Curves= 0 
DSS Export Rating Curve Sorted= 0 
DSS Export Volume Flow Curves= 0 
DXF Filename=..\..\Projects\Courses\ASCE Courses\2D Course\W04_Inline_SOLUTION\Muncie.
DXF OffsetX= 0 
DXF OffsetY= 0 
DXF ScaleX= 1 
DXF ScaleY= 10 
GIS Export Profiles= 0 
