Geom Title=Muncie_base2D
Program Version=5.07
Viewing Rectangle= 384977.84867792 , 424437.84867792 , 1811553.5402636 , 1788863.5402636 

Storage Area=Muncie_Geom     ,409230.4562239,1803255.155042
Storage Area Surface Line= 30 
414421.7351049921800819.12925698                
414645.0297955071799578.20894321                
413617.3456257181799459.59199964                
412697.0314438171799881.91660954                
412123.4300515961800485.50432987                
411579.744985201 1801004.4764387                
410665.3655553551801239.24953556                
409652.1342952561801325.74488703                
408325.5390797861801599.83143287                
407297.8549099961801646.87004547                
406019.3295334371801115.68474774                
405441.887976495 1800724.6379195                
402979.6357531391803624.04994042                
403127.9134985191804933.83669128                
403622.1726497871805712.29485453                
404610.6909523231806194.19752702                
 405389.149115571806120.05865433                
406464.1627695781806466.04006021                
407833.6931832581805557.81395557                
408577.1206412481807466.91484153                
410529.4442887571806527.82245412                
410022.8286587071805761.72076966                
409701.5602103831804983.26260641                
410304.2145708731804471.55151282                
411331.8987406631804193.24203332                
412206.1972134691804483.56724512                
412835.078571102 1803953.8327843                
414063.3972203231802783.80938327                
414199.3184869211801782.93460195                
414421.7351049921800819.12925698                
Storage Area Type= 1 
Storage Area Area=
Storage Area Min Elev=
Storage Area Is2D=-1
Storage Area Point Generation Data=0,0,100,100
Storage Area 2D Points= 4941 
408629.6357531391807316.91484153408729.6357531391807316.91484153
408829.6357531391807316.91484153408529.6357531391807216.91484153
408629.6357531391807216.91484153408729.6357531391807216.91484153
408829.6357531391807216.91484153408929.6357531391807216.91484153
409029.6357531391807216.91484153408529.6357531391807116.91484153
408629.6357531391807116.91484153408729.6357531391807116.91484153
408829.6357531391807116.91484153408929.6357531391807116.91484153
409029.6357531391807116.91484153409129.6357531391807116.91484153
409229.6357531391807116.91484153408429.6357531391807016.91484153
408529.6357531391807016.91484153408629.6357531391807016.91484153
408729.6357531391807016.91484153408829.6357531391807016.91484153
408929.6357531391807016.91484153409029.6357531391807016.91484153
409129.6357531391807016.91484153409229.6357531391807016.91484153
409329.6357531391807016.91484153409429.6357531391807016.91484153
408429.6357531391806916.91484153408529.6357531391806916.91484153
408629.6357531391806916.91484153408729.6357531391806916.91484153
408829.6357531391806916.91484153408929.6357531391806916.91484153
409029.6357531391806916.91484153409129.6357531391806916.91484153
409229.6357531391806916.91484153409329.6357531391806916.91484153
409429.6357531391806916.91484153409529.6357531391806916.91484153
409629.6357531391806916.91484153408429.6357531391806816.91484153
408529.6357531391806816.91484153408629.6357531391806816.91484153
408729.6357531391806816.91484153408829.6357531391806816.91484153
408929.6357531391806816.91484153409029.6357531391806816.91484153
409129.6357531391806816.91484153409229.6357531391806816.91484153
409329.6357531391806816.91484153409429.6357531391806816.91484153
409529.6357531391806816.91484153409629.6357531391806816.91484153
409729.6357531391806816.91484153409829.6357531391806816.91484153
408329.6357531391806716.91484153408429.6357531391806716.91484153
408529.6357531391806716.91484153408629.6357531391806716.91484153
408729.6357531391806716.91484153408829.6357531391806716.91484153
408929.6357531391806716.91484153409029.6357531391806716.91484153
409129.6357531391806716.91484153409229.6357531391806716.91484153
409329.6357531391806716.91484153409429.6357531391806716.91484153
409529.6357531391806716.91484153409629.6357531391806716.91484153
409729.6357531391806716.91484153409829.6357531391806716.91484153
409929.6357531391806716.91484153410029.6357531391806716.91484153
408329.6357531391806616.91484153408429.6357531391806616.91484153
408529.6357531391806616.91484153408629.6357531391806616.91484153
408729.6357531391806616.91484153408829.6357531391806616.91484153
409129.6357531391806616.91484153409229.6357531391806616.91484153
409329.6357531391806616.91484153409429.6357531391806616.91484153
409529.6357531391806616.91484153409629.6357531391806616.91484153
409729.6357531391806616.91484153409829.6357531391806616.91484153
409929.6357531391806616.91484153410029.6357531391806616.91484153
410129.6357531391806616.91484153410229.6357531391806616.91484153
408329.6357531391806516.91484153408429.6357531391806516.91484153
408529.6357531391806516.91484153408629.6357531391806516.91484153
408729.6357531391806516.91484153408829.6357531391806516.91484153
409129.6357531391806516.91484153409229.6357531391806516.91484153
409329.6357531391806516.91484153409429.6357531391806516.91484153
409529.6357531391806516.91484153409629.6357531391806516.91484153
409729.6357531391806516.91484153409829.6357531391806516.91484153
409929.6357531391806516.91484153410029.6357531391806516.91484153
410129.6357531391806516.91484153410229.6357531391806516.91484153
410329.6357531391806516.91484153410429.6357531391806516.91484153
406429.6357531391806416.91484153408229.6357531391806416.91484153
408329.6357531391806416.91484153408429.6357531391806416.91484153
408529.6357531391806416.91484153408629.6357531391806416.91484153
408729.6357531391806416.91484153408829.6357531391806416.91484153
408929.6357531391806416.91484153409129.6357531391806416.91484153
409229.6357531391806416.91484153409329.6357531391806416.91484153
409429.6357531391806416.91484153409529.6357531391806416.91484153
409629.6357531391806416.91484153409729.6357531391806416.91484153
409829.6357531391806416.91484153409929.6357531391806416.91484153
410029.6357531391806416.91484153410129.6357531391806416.91484153
410229.6357531391806416.91484153410329.6357531391806416.91484153
406129.6357531391806316.91484153406229.6357531391806316.91484153
406329.6357531391806316.91484153406429.6357531391806316.91484153
406529.6357531391806316.91484153406629.6357531391806316.91484153
408229.6357531391806316.91484153408329.6357531391806316.91484153
408429.6357531391806316.91484153408529.6357531391806316.91484153
408629.6357531391806316.91484153408729.6357531391806316.91484153
408829.6357531391806316.91484153409129.6357531391806316.91484153
409229.6357531391806316.91484153409329.6357531391806316.91484153
409429.6357531391806316.91484153409529.6357531391806316.91484153
409629.6357531391806316.91484153409729.6357531391806316.91484153
409829.6357531391806316.91484153409929.6357531391806316.91484153
410029.6357531391806316.91484153410129.6357531391806316.91484153
410229.6357531391806316.91484153410329.6357531391806316.91484153
405829.6357531391806216.91484153405929.6357531391806216.91484153
406029.6357531391806216.91484153406129.6357531391806216.91484153
406229.6357531391806216.91484153406329.6357531391806216.91484153
406429.6357531391806216.91484153406529.6357531391806216.91484153
406629.6357531391806216.91484153406729.6357531391806216.91484153
408129.6357531391806216.91484153408229.6357531391806216.91484153
408329.6357531391806216.91484153408429.6357531391806216.91484153
408529.6357531391806216.91484153408629.6357531391806216.91484153
408729.6357531391806216.91484153408829.6357531391806216.91484153
409129.6357531391806216.91484153409229.6357531391806216.91484153
409329.6357531391806216.91484153409429.6357531391806216.91484153
409529.6357531391806216.91484153409629.6357531391806216.91484153
409729.6357531391806216.91484153409829.6357531391806216.91484153
409929.6357531391806216.91484153410029.6357531391806216.91484153
410129.6357531391806216.91484153410229.6357531391806216.91484153
404529.6357531391806116.91484153404629.6357531391806116.91484153
404729.6357531391806116.91484153404829.6357531391806116.91484153
404929.6357531391806116.91484153405029.6357531391806116.91484153
405129.6357531391806116.91484153405529.6357531391806116.91484153
405629.6357531391806116.91484153405729.6357531391806116.91484153
405829.6357531391806116.91484153405929.6357531391806116.91484153
406029.6357531391806116.91484153406129.6357531391806116.91484153
406229.6357531391806116.91484153406329.6357531391806116.91484153
406429.6357531391806116.91484153406529.6357531391806116.91484153
406629.6357531391806116.91484153406729.6357531391806116.91484153
406829.6357531391806116.91484153406929.6357531391806116.91484153
408129.6357531391806116.91484153408229.6357531391806116.91484153
408329.6357531391806116.91484153408429.6357531391806116.91484153
408529.6357531391806116.91484153408629.6357531391806116.91484153
408729.6357531391806116.91484153408829.6357531391806116.91484153
409029.6357531391806116.91484153409129.6357531391806116.91484153
409229.6357531391806116.91484153409329.6357531391806116.91484153
409429.6357531391806116.91484153409529.6357531391806116.91484153
409629.6357531391806116.91484153409729.6357531391806116.91484153
409829.6357531391806116.91484153409929.6357531391806116.91484153
410029.6357531391806116.91484153410129.6357531391806116.91484153
404329.6357531391806016.91484153404429.6357531391806016.91484153
404529.6357531391806016.91484153404629.6357531391806016.91484153
404729.6357531391806016.91484153404829.6357531391806016.91484153
404929.6357531391806016.91484153405029.6357531391806016.91484153
405129.6357531391806016.91484153405229.6357531391806016.91484153
405329.6357531391806016.91484153405429.6357531391806016.91484153
405529.6357531391806016.91484153405629.6357531391806016.91484153
405729.6357531391806016.91484153405829.6357531391806016.91484153
405929.6357531391806016.91484153406029.6357531391806016.91484153
406129.6357531391806016.91484153406229.6357531391806016.91484153
406329.6357531391806016.91484153406429.6357531391806016.91484153
406529.6357531391806016.91484153406629.6357531391806016.91484153
406729.6357531391806016.91484153406829.6357531391806016.91484153
406929.6357531391806016.91484153407029.6357531391806016.91484153
408129.6357531391806016.91484153408229.6357531391806016.91484153
408329.6357531391806016.91484153408429.6357531391806016.91484153
408529.6357531391806016.91484153408629.6357531391806016.91484153
408729.6357531391806016.91484153409029.6357531391806016.91484153
409129.6357531391806016.91484153409229.6357531391806016.91484153
409329.6357531391806016.91484153409429.6357531391806016.91484153
409529.6357531391806016.91484153409629.6357531391806016.91484153
409729.6357531391806016.91484153409829.6357531391806016.91484153
409929.6357531391806016.91484153410029.6357531391806016.91484153
410129.6357531391806016.91484153404129.6357531391805916.91484153
404229.6357531391805916.91484153404329.6357531391805916.91484153
404429.6357531391805916.91484153404529.6357531391805916.91484153
404629.6357531391805916.91484153404729.6357531391805916.91484153
404829.6357531391805916.91484153404929.6357531391805916.91484153
405029.6357531391805916.91484153405129.6357531391805916.91484153
405229.6357531391805916.91484153405329.6357531391805916.91484153
405429.6357531391805916.91484153405529.6357531391805916.91484153
405629.6357531391805916.91484153405729.6357531391805916.91484153
405829.6357531391805916.91484153405929.6357531391805916.91484153
406029.6357531391805916.91484153406129.6357531391805916.91484153
406229.6357531391805916.91484153406329.6357531391805916.91484153
406429.6357531391805916.91484153406529.6357531391805916.91484153
406629.6357531391805916.91484153406729.6357531391805916.91484153
406829.6357531391805916.91484153406929.6357531391805916.91484153
407029.6357531391805916.91484153407129.6357531391805916.91484153
407229.6357531391805916.91484153408029.6357531391805916.91484153
408129.6357531391805916.91484153408229.6357531391805916.91484153
408329.6357531391805916.91484153408429.6357531391805916.91484153
408529.6357531391805916.91484153408629.6357531391805916.91484153
408729.6357531391805916.91484153409029.6357531391805916.91484153
409129.6357531391805916.91484153409229.6357531391805916.91484153
409329.6357531391805916.91484153409429.6357531391805916.91484153
409529.6357531391805916.91484153409629.6357531391805916.91484153
409729.6357531391805916.91484153409829.6357531391805916.91484153
409929.6357531391805916.91484153410029.6357531391805916.91484153
403929.6357531391805816.91484153404029.6357531391805816.91484153
404129.6357531391805816.91484153404229.6357531391805816.91484153
404329.6357531391805816.91484153404429.6357531391805816.91484153
404529.6357531391805816.91484153404629.6357531391805816.91484153
404729.6357531391805816.91484153404829.6357531391805816.91484153
404929.6357531391805816.91484153405029.6357531391805816.91484153
405129.6357531391805816.91484153405229.6357531391805816.91484153
405329.6357531391805816.91484153405429.6357531391805816.91484153
405529.6357531391805816.91484153405629.6357531391805816.91484153
405729.6357531391805816.91484153405829.6357531391805816.91484153
405929.6357531391805816.91484153406029.6357531391805816.91484153
406129.6357531391805816.91484153406229.6357531391805816.91484153
406329.6357531391805816.91484153406429.6357531391805816.91484153
406529.6357531391805816.91484153406629.6357531391805816.91484153
406729.6357531391805816.91484153406829.6357531391805816.91484153
406929.6357531391805816.91484153407029.6357531391805816.91484153
407129.6357531391805816.91484153407229.6357531391805816.91484153
407329.6357531391805816.91484153408029.6357531391805816.91484153
408129.6357531391805816.91484153408229.6357531391805816.91484153
408329.6357531391805816.91484153408429.6357531391805816.91484153
408529.6357531391805816.91484153408629.6357531391805816.91484153
408729.6357531391805816.91484153409029.6357531391805816.91484153
409129.6357531391805816.91484153409229.6357531391805816.91484153
409329.6357531391805816.91484153409429.6357531391805816.91484153
409529.6357531391805816.91484153409629.6357531391805816.91484153
409729.6357531391805816.91484153409829.6357531391805816.91484153
409929.6357531391805816.91484153403729.6357531391805716.91484153
403829.6357531391805716.91484153403929.6357531391805716.91484153
404029.6357531391805716.91484153404129.6357531391805716.91484153
404229.6357531391805716.91484153404329.6357531391805716.91484153
404429.6357531391805716.91484153404529.6357531391805716.91484153
404629.6357531391805716.91484153404729.6357531391805716.91484153
404829.6357531391805716.91484153404929.6357531391805716.91484153
405029.6357531391805716.91484153405129.6357531391805716.91484153
405229.6357531391805716.91484153405329.6357531391805716.91484153
405429.6357531391805716.91484153405529.6357531391805716.91484153
405629.6357531391805716.91484153405729.6357531391805716.91484153
405829.6357531391805716.91484153405929.6357531391805716.91484153
406029.6357531391805716.91484153406129.6357531391805716.91484153
406229.6357531391805716.91484153406329.6357531391805716.91484153
406429.6357531391805716.91484153406529.6357531391805716.91484153
406629.6357531391805716.91484153406729.6357531391805716.91484153
406829.6357531391805716.91484153406929.6357531391805716.91484153
407029.6357531391805716.91484153407129.6357531391805716.91484153
407229.6357531391805716.91484153407329.6357531391805716.91484153
407429.6357531391805716.91484153407529.6357531391805716.91484153
407929.6357531391805716.91484153408029.6357531391805716.91484153
408129.6357531391805716.91484153408229.6357531391805716.91484153
408329.6357531391805716.91484153408429.6357531391805716.91484153
408529.6357531391805716.91484153408629.6357531391805716.91484153
408929.6357531391805716.91484153409029.6357531391805716.91484153
409129.6357531391805716.91484153409229.6357531391805716.91484153
409329.6357531391805716.91484153409429.6357531391805716.91484153
409529.6357531391805716.91484153409629.6357531391805716.91484153
409729.6357531391805716.91484153409829.6357531391805716.91484153
409929.6357531391805716.91484153403629.6357531391805616.91484153
403729.6357531391805616.91484153403829.6357531391805616.91484153
403929.6357531391805616.91484153404029.6357531391805616.91484153
404129.6357531391805616.91484153404229.6357531391805616.91484153
404329.6357531391805616.91484153404429.6357531391805616.91484153
404529.6357531391805616.91484153404629.6357531391805616.91484153
404729.6357531391805616.91484153404829.6357531391805616.91484153
404929.6357531391805616.91484153405029.6357531391805616.91484153
405129.6357531391805616.91484153405229.6357531391805616.91484153
405329.6357531391805616.91484153405429.6357531391805616.91484153
405529.6357531391805616.91484153405629.6357531391805616.91484153
405729.6357531391805616.91484153405829.6357531391805616.91484153
405929.6357531391805616.91484153406029.6357531391805616.91484153
406129.6357531391805616.91484153406229.6357531391805616.91484153
406329.6357531391805616.91484153406429.6357531391805616.91484153
406529.6357531391805616.91484153406629.6357531391805616.91484153
406729.6357531391805616.91484153406829.6357531391805616.91484153
406929.6357531391805616.91484153407029.6357531391805616.91484153
407129.6357531391805616.91484153407229.6357531391805616.91484153
407329.6357531391805616.91484153407429.6357531391805616.91484153
407529.6357531391805616.91484153407629.6357531391805616.91484153
407929.6357531391805616.91484153408029.6357531391805616.91484153
408129.6357531391805616.91484153408229.6357531391805616.91484153
408329.6357531391805616.91484153408429.6357531391805616.91484153
408529.6357531391805616.91484153408629.6357531391805616.91484153
408929.6357531391805616.91484153409029.6357531391805616.91484153
409129.6357531391805616.91484153409229.6357531391805616.91484153
409329.6357531391805616.91484153409429.6357531391805616.91484153
409529.6357531391805616.91484153409629.6357531391805616.91484153
409729.6357531391805616.91484153409829.6357531391805616.91484153
409929.6357531391805616.91484153403529.6357531391805516.91484153
403629.6357531391805516.91484153403729.6357531391805516.91484153
403829.6357531391805516.91484153403929.6357531391805516.91484153
404029.6357531391805516.91484153404129.6357531391805516.91484153
404229.6357531391805516.91484153404329.6357531391805516.91484153
404429.6357531391805516.91484153404529.6357531391805516.91484153
404629.6357531391805516.91484153404729.6357531391805516.91484153
404829.6357531391805516.91484153404929.6357531391805516.91484153
405029.6357531391805516.91484153405129.6357531391805516.91484153
405229.6357531391805516.91484153405329.6357531391805516.91484153
405429.6357531391805516.91484153405529.6357531391805516.91484153
405629.6357531391805516.91484153405729.6357531391805516.91484153
405829.6357531391805516.91484153405929.6357531391805516.91484153
406029.6357531391805516.91484153406129.6357531391805516.91484153
406229.6357531391805516.91484153406329.6357531391805516.91484153
406429.6357531391805516.91484153406529.6357531391805516.91484153
406629.6357531391805516.91484153406729.6357531391805516.91484153
406829.6357531391805516.91484153406929.6357531391805516.91484153
407029.6357531391805516.91484153407129.6357531391805516.91484153
407229.6357531391805516.91484153407329.6357531391805516.91484153
407429.6357531391805516.91484153407529.6357531391805516.91484153
407629.6357531391805516.91484153407729.6357531391805516.91484153
407829.6357531391805516.91484153407929.6357531391805516.91484153
408029.6357531391805516.91484153408129.6357531391805516.91484153
408229.6357531391805516.91484153408329.6357531391805516.91484153
408429.6357531391805516.91484153408529.6357531391805516.91484153
408829.6357531391805516.91484153408929.6357531391805516.91484153
409029.6357531391805516.91484153409129.6357531391805516.91484153
409229.6357531391805516.91484153409329.6357531391805516.91484153
409429.6357531391805516.91484153409529.6357531391805516.91484153
409629.6357531391805516.91484153409729.6357531391805516.91484153
409829.6357531391805516.91484153403529.6357531391805416.91484153
403629.6357531391805416.91484153403729.6357531391805416.91484153
403829.6357531391805416.91484153403929.6357531391805416.91484153
404029.6357531391805416.91484153404129.6357531391805416.91484153
404229.6357531391805416.91484153404329.6357531391805416.91484153
404429.6357531391805416.91484153404529.6357531391805416.91484153
404629.6357531391805416.91484153404729.6357531391805416.91484153
404829.6357531391805416.91484153404929.6357531391805416.91484153
405029.6357531391805416.91484153405129.6357531391805416.91484153
405229.6357531391805416.91484153405329.6357531391805416.91484153
405429.6357531391805416.91484153405529.6357531391805416.91484153
405629.6357531391805416.91484153405729.6357531391805416.91484153
405829.6357531391805416.91484153405929.6357531391805416.91484153
406029.6357531391805416.91484153406129.6357531391805416.91484153
406229.6357531391805416.91484153406329.6357531391805416.91484153
406429.6357531391805416.91484153406529.6357531391805416.91484153
406629.6357531391805416.91484153406729.6357531391805416.91484153
406829.6357531391805416.91484153406929.6357531391805416.91484153
407029.6357531391805416.91484153407129.6357531391805416.91484153
407229.6357531391805416.91484153407329.6357531391805416.91484153
407429.6357531391805416.91484153407529.6357531391805416.91484153
407629.6357531391805416.91484153407729.6357531391805416.91484153
407829.6357531391805416.91484153407929.6357531391805416.91484153
408029.6357531391805416.91484153408129.6357531391805416.91484153
408229.6357531391805416.91484153408329.6357531391805416.91484153
408429.6357531391805416.91484153408529.6357531391805416.91484153
408729.6357531391805416.91484153408829.6357531391805416.91484153
408929.6357531391805416.91484153409029.6357531391805416.91484153
409129.6357531391805416.91484153409229.6357531391805416.91484153
409329.6357531391805416.91484153409429.6357531391805416.91484153
409529.6357531391805416.91484153409629.6357531391805416.91484153
409729.6357531391805416.91484153409829.6357531391805416.91484153
403429.6357531391805316.91484153403529.6357531391805316.91484153
403629.6357531391805316.91484153403729.6357531391805316.91484153
403829.6357531391805316.91484153403929.6357531391805316.91484153
404029.6357531391805316.91484153404129.6357531391805316.91484153
404229.6357531391805316.91484153404329.6357531391805316.91484153
404429.6357531391805316.91484153404529.6357531391805316.91484153
404629.6357531391805316.91484153404729.6357531391805316.91484153
404829.6357531391805316.91484153404929.6357531391805316.91484153
405029.6357531391805316.91484153405129.6357531391805316.91484153
405229.6357531391805316.91484153405329.6357531391805316.91484153
405429.6357531391805316.91484153405529.6357531391805316.91484153
405629.6357531391805316.91484153406229.6357531391805316.91484153
406329.6357531391805316.91484153406429.6357531391805316.91484153
406529.6357531391805316.91484153406629.6357531391805316.91484153
406729.6357531391805316.91484153406829.6357531391805316.91484153
406929.6357531391805316.91484153407029.6357531391805316.91484153
407129.6357531391805316.91484153407229.6357531391805316.91484153
407329.6357531391805316.91484153407429.6357531391805316.91484153
407529.6357531391805316.91484153407629.6357531391805316.91484153
407729.6357531391805316.91484153407829.6357531391805316.91484153
407929.6357531391805316.91484153408029.6357531391805316.91484153
408129.6357531391805316.91484153408229.6357531391805316.91484153
408329.6357531391805316.91484153408429.6357531391805316.91484153
408729.6357531391805316.91484153408829.6357531391805316.91484153
408929.6357531391805316.91484153409029.6357531391805316.91484153
409129.6357531391805316.91484153409229.6357531391805316.91484153
409329.6357531391805316.91484153409429.6357531391805316.91484153
409529.6357531391805316.91484153409629.6357531391805316.91484153
409729.6357531391805316.91484153403429.6357531391805216.91484153
403529.6357531391805216.91484153403629.6357531391805216.91484153
403729.6357531391805216.91484153403829.6357531391805216.91484153
403929.6357531391805216.91484153404029.6357531391805216.91484153
404129.6357531391805216.91484153404229.6357531391805216.91484153
404329.6357531391805216.91484153404429.6357531391805216.91484153
404529.6357531391805216.91484153404629.6357531391805216.91484153
404729.6357531391805216.91484153404829.6357531391805216.91484153
404929.6357531391805216.91484153405029.6357531391805216.91484153
405129.6357531391805216.91484153406629.6357531391805216.91484153
406729.6357531391805216.91484153406829.6357531391805216.91484153
406929.6357531391805216.91484153407029.6357531391805216.91484153
407129.6357531391805216.91484153407229.6357531391805216.91484153
407329.6357531391805216.91484153407429.6357531391805216.91484153
407529.6357531391805216.91484153407629.6357531391805216.91484153
407729.6357531391805216.91484153407829.6357531391805216.91484153
407929.6357531391805216.91484153408029.6357531391805216.91484153
408129.6357531391805216.91484153408229.6357531391805216.91484153
408329.6357531391805216.91484153408629.6357531391805216.91484153
408729.6357531391805216.91484153408829.6357531391805216.91484153
408929.6357531391805216.91484153409029.6357531391805216.91484153
409129.6357531391805216.91484153409229.6357531391805216.91484153
409329.6357531391805216.91484153409429.6357531391805216.91484153
409529.6357531391805216.91484153409629.6357531391805216.91484153
409729.6357531391805216.91484153403329.6357531391805116.91484153
403429.6357531391805116.91484153403529.6357531391805116.91484153
403629.6357531391805116.91484153403729.6357531391805116.91484153
403829.6357531391805116.91484153403929.6357531391805116.91484153
404029.6357531391805116.91484153404129.6357531391805116.91484153
404229.6357531391805116.91484153404329.6357531391805116.91484153
404429.6357531391805116.91484153404529.6357531391805116.91484153
404629.6357531391805116.91484153404729.6357531391805116.91484153
404829.6357531391805116.91484153404929.6357531391805116.91484153
405629.6357531391805116.91484153405729.6357531391805116.91484153
406929.6357531391805116.91484153407029.6357531391805116.91484153
407129.6357531391805116.91484153407229.6357531391805116.91484153
407329.6357531391805116.91484153407429.6357531391805116.91484153
407529.6357531391805116.91484153407629.6357531391805116.91484153
407729.6357531391805116.91484153407829.6357531391805116.91484153
407929.6357531391805116.91484153408029.6357531391805116.91484153
408129.6357531391805116.91484153408229.6357531391805116.91484153
408329.6357531391805116.91484153408529.6357531391805116.91484153
408629.6357531391805116.91484153408729.6357531391805116.91484153
408829.6357531391805116.91484153408929.6357531391805116.91484153
409029.6357531391805116.91484153409129.6357531391805116.91484153
409229.6357531391805116.91484153409329.6357531391805116.91484153
409429.6357531391805116.91484153409529.6357531391805116.91484153
409629.6357531391805116.91484153409729.6357531391805116.91484153
403229.6357531391805016.91484153403329.6357531391805016.91484153
403429.6357531391805016.91484153403529.6357531391805016.91484153
403629.6357531391805016.91484153403729.6357531391805016.91484153
403829.6357531391805016.91484153403929.6357531391805016.91484153
404029.6357531391805016.91484153404129.6357531391805016.91484153
404229.6357531391805016.91484153404329.6357531391805016.91484153
404429.6357531391805016.91484153404529.6357531391805016.91484153
404629.6357531391805016.91484153404729.6357531391805016.91484153
404829.6357531391805016.91484153405229.6357531391805016.91484153
407129.6357531391805016.91484153407229.6357531391805016.91484153
407329.6357531391805016.91484153407429.6357531391805016.91484153
407529.6357531391805016.91484153407629.6357531391805016.91484153
407729.6357531391805016.91484153407829.6357531391805016.91484153
407929.6357531391805016.91484153408029.6357531391805016.91484153
408129.6357531391805016.91484153408229.6357531391805016.91484153
408329.6357531391805016.91484153408529.6357531391805016.91484153
408629.6357531391805016.91484153408729.6357531391805016.91484153
408829.6357531391805016.91484153408929.6357531391805016.91484153
409029.6357531391805016.91484153409129.6357531391805016.91484153
409229.6357531391805016.91484153409329.6357531391805016.91484153
409429.6357531391805016.91484153409529.6357531391805016.91484153
409629.6357531391805016.91484153403229.6357531391804916.91484153
403329.6357531391804916.91484153403429.6357531391804916.91484153
403529.6357531391804916.91484153403629.6357531391804916.91484153
403729.6357531391804916.91484153403829.6357531391804916.91484153
403929.6357531391804916.91484153404029.6357531391804916.91484153
404129.6357531391804916.91484153404229.6357531391804916.91484153
404329.6357531391804916.91484153404429.6357531391804916.91484153
404529.6357531391804916.91484153404629.6357531391804916.91484153
404729.6357531391804916.91484153405029.6357531391804916.91484153
405529.6357531391804916.91484153405629.6357531391804916.91484153
405729.6357531391804916.91484153405829.6357531391804916.91484153
405929.6357531391804916.91484153406029.6357531391804916.91484153
406129.6357531391804916.91484153406229.6357531391804916.91484153
406329.6357531391804916.91484153406429.6357531391804916.91484153
406529.6357531391804916.91484153407429.6357531391804916.91484153
407529.6357531391804916.91484153407629.6357531391804916.91484153
407729.6357531391804916.91484153407829.6357531391804916.91484153
407929.6357531391804916.91484153408029.6357531391804916.91484153
408129.6357531391804916.91484153408229.6357531391804916.91484153
408529.6357531391804916.91484153408629.6357531391804916.91484153
408729.6357531391804916.91484153408829.6357531391804916.91484153
408929.6357531391804916.91484153409029.6357531391804916.91484153