Geom Title=Muncie_base2D
Program Version=6.10
Viewing Rectangle= 384977.84867792 , 424437.84867792 , 1811553.5402636 , 1788863.5402636 

Storage Area=Muncie_Geom     ,409230.4562239,1803255.155042
Storage Area Surface Line= 30 
414421.7351049921800819.12925698                
414645.0297955071799578.20894321                
413617.3456257181799459.59199964                
412697.0314438171799881.91660954                
412123.4300515961800485.50432987                
411579.744985201 1801004.4764387                
410665.3655553551801239.24953556                
409652.1342952561801325.74488703                
408325.5390797861801599.83143287                
407297.8549099961801646.87004547                
406019.3295334371801115.68474774                
405441.887976495 1800724.6379195                
402979.6357531391803624.04994042                
403127.9134985191804933.83669128                
403622.1726497871805712.29485453                
404610.6909523231806194.19752702                
 405389.149115571806120.05865433                
406464.1627695781806466.04006021                
407833.6931832581805557.81395557                
408577.1206412481807466.91484153                
410529.4442887571806527.82245412                
410022.8286587071805761.72076966                
409701.5602103831804983.26260641                
410304.2145708731804471.55151282                
411331.8987406631804193.24203332                
412206.1972134691804483.56724512                
412835.078571102 1803953.8327843                
414063.3972203231802783.80938327                
414199.3184869211801782.93460195                
414421.7351049921800819.12925698                
Storage Area Type= 1 
Storage Area Area=
Storage Area Min Elev=
Storage Area Is2D=-1
Storage Area Point Generation Data=0,0,50,50
Storage Area 2D Points= 19407 
408604.6357531391807391.91484153408654.6357531391807391.91484153
408554.6357531391807341.91484153408604.6357531391807341.91484153
408654.6357531391807341.91484153408704.6357531391807341.91484153
408754.6357531391807341.91484153408804.6357531391807341.91484153
408554.6357531391807291.91484153408604.6357531391807291.91484153
408654.6357531391807291.91484153408704.6357531391807291.91484153
408754.6357531391807291.91484153408804.6357531391807291.91484153
408854.6357531391807291.91484153408904.6357531391807291.91484153
408504.6357531391807241.91484153408554.6357531391807241.91484153
408604.6357531391807241.91484153408654.6357531391807241.91484153
408704.6357531391807241.91484153408754.6357531391807241.91484153
408804.6357531391807241.91484153408854.6357531391807241.91484153
408904.6357531391807241.91484153408954.6357531391807241.91484153
409004.6357531391807241.91484153408504.6357531391807191.91484153
408554.6357531391807191.91484153408604.6357531391807191.91484153
408654.6357531391807191.91484153408704.6357531391807191.91484153
408754.6357531391807191.91484153408804.6357531391807191.91484153
408854.6357531391807191.91484153408904.6357531391807191.91484153
408954.6357531391807191.91484153409004.6357531391807191.91484153
409054.6357531391807191.91484153409104.6357531391807191.91484153
408504.6357531391807141.91484153408554.6357531391807141.91484153
408604.6357531391807141.91484153408654.6357531391807141.91484153
408704.6357531391807141.91484153408754.6357531391807141.91484153
408804.6357531391807141.91484153408854.6357531391807141.91484153
408904.6357531391807141.91484153408954.6357531391807141.91484153
409004.6357531391807141.91484153409054.6357531391807141.91484153
409104.6357531391807141.91484153409154.6357531391807141.91484153
409204.6357531391807141.91484153408454.6357531391807091.91484153
408504.6357531391807091.91484153408554.6357531391807091.91484153
408604.6357531391807091.91484153408654.6357531391807091.91484153
408704.6357531391807091.91484153408754.6357531391807091.91484153
408804.6357531391807091.91484153408854.6357531391807091.91484153
408904.6357531391807091.91484153408954.6357531391807091.91484153
409004.6357531391807091.91484153409054.6357531391807091.91484153
409104.6357531391807091.91484153409154.6357531391807091.91484153
409204.6357531391807091.91484153409254.6357531391807091.91484153
409304.6357531391807091.91484153408454.6357531391807041.91484153
408504.6357531391807041.91484153408554.6357531391807041.91484153
408604.6357531391807041.91484153408654.6357531391807041.91484153
408704.6357531391807041.91484153408754.6357531391807041.91484153
408804.6357531391807041.91484153408854.6357531391807041.91484153
408904.6357531391807041.91484153408954.6357531391807041.91484153
409004.6357531391807041.91484153409054.6357531391807041.91484153
409104.6357531391807041.91484153409154.6357531391807041.91484153
409204.6357531391807041.91484153409254.6357531391807041.91484153
409304.6357531391807041.91484153409354.6357531391807041.91484153
409404.6357531391807041.91484153408454.6357531391806991.91484153
408504.6357531391806991.91484153408554.6357531391806991.91484153
408604.6357531391806991.91484153408654.6357531391806991.91484153
408704.6357531391806991.91484153408754.6357531391806991.91484153
408804.6357531391806991.91484153408854.6357531391806991.91484153
408904.6357531391806991.91484153408954.6357531391806991.91484153
409004.6357531391806991.91484153409054.6357531391806991.91484153
409104.6357531391806991.91484153409154.6357531391806991.91484153
409204.6357531391806991.91484153409254.6357531391806991.91484153
409304.6357531391806991.91484153409354.6357531391806991.91484153
409404.6357531391806991.91484153409454.6357531391806991.91484153
409504.6357531391806991.91484153408404.6357531391806941.91484153
408454.6357531391806941.91484153408504.6357531391806941.91484153
408554.6357531391806941.91484153408604.6357531391806941.91484153
408654.6357531391806941.91484153408704.6357531391806941.91484153
408754.6357531391806941.91484153408804.6357531391806941.91484153
408854.6357531391806941.91484153408904.6357531391806941.91484153
408954.6357531391806941.91484153409004.6357531391806941.91484153
409054.6357531391806941.91484153409104.6357531391806941.91484153
409154.6357531391806941.91484153409204.6357531391806941.91484153
409254.6357531391806941.91484153409304.6357531391806941.91484153
409354.6357531391806941.91484153409404.6357531391806941.91484153
409454.6357531391806941.91484153409504.6357531391806941.91484153
409554.6357531391806941.91484153409604.6357531391806941.91484153
408404.6357531391806891.91484153408454.6357531391806891.91484153
408504.6357531391806891.91484153408554.6357531391806891.91484153
408604.6357531391806891.91484153408654.6357531391806891.91484153
408704.6357531391806891.91484153408754.6357531391806891.91484153
408804.6357531391806891.91484153408854.6357531391806891.91484153
408904.6357531391806891.91484153408954.6357531391806891.91484153
409004.6357531391806891.91484153409054.6357531391806891.91484153
409104.6357531391806891.91484153409154.6357531391806891.91484153
409204.6357531391806891.91484153409254.6357531391806891.91484153
409304.6357531391806891.91484153409354.6357531391806891.91484153
409404.6357531391806891.91484153409454.6357531391806891.91484153
409504.6357531391806891.91484153409554.6357531391806891.91484153
409604.6357531391806891.91484153409654.6357531391806891.91484153
409704.6357531391806891.91484153408354.6357531391806841.91484153
408404.6357531391806841.91484153408454.6357531391806841.91484153
408504.6357531391806841.91484153408554.6357531391806841.91484153
408604.6357531391806841.91484153408654.6357531391806841.91484153
408704.6357531391806841.91484153408754.6357531391806841.91484153
408804.6357531391806841.91484153408854.6357531391806841.91484153
408904.6357531391806841.91484153408954.6357531391806841.91484153
409004.6357531391806841.91484153409054.6357531391806841.91484153
409104.6357531391806841.91484153409154.6357531391806841.91484153
409204.6357531391806841.91484153409254.6357531391806841.91484153
409304.6357531391806841.91484153409354.6357531391806841.91484153
409404.6357531391806841.91484153409454.6357531391806841.91484153
409504.6357531391806841.91484153409554.6357531391806841.91484153
409604.6357531391806841.91484153409654.6357531391806841.91484153
409704.6357531391806841.91484153409754.6357531391806841.91484153
409804.6357531391806841.91484153408354.6357531391806791.91484153
408404.6357531391806791.91484153408454.6357531391806791.91484153
408504.6357531391806791.91484153408554.6357531391806791.91484153
408604.6357531391806791.91484153408654.6357531391806791.91484153
408704.6357531391806791.91484153408754.6357531391806791.91484153
408804.6357531391806791.91484153408854.6357531391806791.91484153
408904.6357531391806791.91484153408954.6357531391806791.91484153
409004.6357531391806791.91484153409054.6357531391806791.91484153
409104.6357531391806791.91484153409154.6357531391806791.91484153
409204.6357531391806791.91484153409254.6357531391806791.91484153
409304.6357531391806791.91484153409354.6357531391806791.91484153
409404.6357531391806791.91484153409454.6357531391806791.91484153
409504.6357531391806791.91484153409554.6357531391806791.91484153
409604.6357531391806791.91484153409654.6357531391806791.91484153
409704.6357531391806791.91484153409754.6357531391806791.91484153
409804.6357531391806791.91484153409854.6357531391806791.91484153
409904.6357531391806791.91484153408354.6357531391806741.91484153
408404.6357531391806741.91484153408454.6357531391806741.91484153
408504.6357531391806741.91484153408554.6357531391806741.91484153
408604.6357531391806741.91484153408654.6357531391806741.91484153
408704.6357531391806741.91484153408754.6357531391806741.91484153
408804.6357531391806741.91484153408854.6357531391806741.91484153
408904.6357531391806741.91484153408954.6357531391806741.91484153
409004.6357531391806741.91484153409054.6357531391806741.91484153
409104.6357531391806741.91484153409154.6357531391806741.91484153
409204.6357531391806741.91484153409254.6357531391806741.91484153
409304.6357531391806741.91484153409354.6357531391806741.91484153
409404.6357531391806741.91484153409454.6357531391806741.91484153
409504.6357531391806741.91484153409554.6357531391806741.91484153
409604.6357531391806741.91484153409654.6357531391806741.91484153
409704.6357531391806741.91484153409754.6357531391806741.91484153
409804.6357531391806741.91484153409854.6357531391806741.91484153
409904.6357531391806741.91484153409954.6357531391806741.91484153
410004.6357531391806741.91484153410054.6357531391806741.91484153
408304.6357531391806691.91484153408354.6357531391806691.91484153
408404.6357531391806691.91484153408454.6357531391806691.91484153
408504.6357531391806691.91484153408554.6357531391806691.91484153
408604.6357531391806691.91484153408654.6357531391806691.91484153
408704.6357531391806691.91484153408754.6357531391806691.91484153
408804.6357531391806691.91484153408854.6357531391806691.91484153
408904.6357531391806691.91484153408954.6357531391806691.91484153
409004.6357531391806691.91484153409054.6357531391806691.91484153
409104.6357531391806691.91484153409154.6357531391806691.91484153
409204.6357531391806691.91484153409254.6357531391806691.91484153
409304.6357531391806691.91484153409354.6357531391806691.91484153
409404.6357531391806691.91484153409454.6357531391806691.91484153
409504.6357531391806691.91484153409554.6357531391806691.91484153
409604.6357531391806691.91484153409654.6357531391806691.91484153
409704.6357531391806691.91484153409754.6357531391806691.91484153
409804.6357531391806691.91484153409854.6357531391806691.91484153
409904.6357531391806691.91484153409954.6357531391806691.91484153
410004.6357531391806691.91484153410054.6357531391806691.91484153
410104.6357531391806691.91484153410154.6357531391806691.91484153
408304.6357531391806641.91484153408354.6357531391806641.91484153
408404.6357531391806641.91484153408454.6357531391806641.91484153
408504.6357531391806641.91484153408554.6357531391806641.91484153
408604.6357531391806641.91484153408654.6357531391806641.91484153
408704.6357531391806641.91484153408754.6357531391806641.91484153
408804.6357531391806641.91484153408854.6357531391806641.91484153
408904.6357531391806641.91484153408954.6357531391806641.91484153
409004.6357531391806641.91484153409054.6357531391806641.91484153
409104.6357531391806641.91484153409154.6357531391806641.91484153
409204.6357531391806641.91484153409254.6357531391806641.91484153
409304.6357531391806641.91484153409354.6357531391806641.91484153
409404.6357531391806641.91484153409454.6357531391806641.91484153
409504.6357531391806641.91484153409554.6357531391806641.91484153
409604.6357531391806641.91484153409654.6357531391806641.91484153
409704.6357531391806641.91484153409754.6357531391806641.91484153
409804.6357531391806641.91484153409854.6357531391806641.91484153
409904.6357531391806641.91484153409954.6357531391806641.91484153
410004.6357531391806641.91484153410054.6357531391806641.91484153
410104.6357531391806641.91484153410154.6357531391806641.91484153
410204.6357531391806641.91484153410254.6357531391806641.91484153
408254.6357531391806591.91484153408304.6357531391806591.91484153
408354.6357531391806591.91484153408404.6357531391806591.91484153
408454.6357531391806591.91484153408504.6357531391806591.91484153
408554.6357531391806591.91484153408604.6357531391806591.91484153
408654.6357531391806591.91484153408704.6357531391806591.91484153
408754.6357531391806591.91484153408804.6357531391806591.91484153
408854.6357531391806591.91484153408904.6357531391806591.91484153
409054.6357531391806591.91484153409104.6357531391806591.91484153
409154.6357531391806591.91484153409204.6357531391806591.91484153
409254.6357531391806591.91484153409304.6357531391806591.91484153
409354.6357531391806591.91484153409404.6357531391806591.91484153
409454.6357531391806591.91484153409504.6357531391806591.91484153
409554.6357531391806591.91484153409604.6357531391806591.91484153
409654.6357531391806591.91484153409704.6357531391806591.91484153
409754.6357531391806591.91484153409804.6357531391806591.91484153
409854.6357531391806591.91484153409904.6357531391806591.91484153
409954.6357531391806591.91484153410004.6357531391806591.91484153
410054.6357531391806591.91484153410104.6357531391806591.91484153
410154.6357531391806591.91484153410204.6357531391806591.91484153
410254.6357531391806591.91484153410304.6357531391806591.91484153
410354.6357531391806591.91484153408254.6357531391806541.91484153
408304.6357531391806541.91484153408354.6357531391806541.91484153
408404.6357531391806541.91484153408454.6357531391806541.91484153
408504.6357531391806541.91484153408554.6357531391806541.91484153
408604.6357531391806541.91484153408654.6357531391806541.91484153
408704.6357531391806541.91484153408754.6357531391806541.91484153
408804.6357531391806541.91484153408854.6357531391806541.91484153
408904.6357531391806541.91484153408954.6357531391806541.91484153
409054.6357531391806541.91484153409104.6357531391806541.91484153
409154.6357531391806541.91484153409204.6357531391806541.91484153
409254.6357531391806541.91484153409304.6357531391806541.91484153
409354.6357531391806541.91484153409404.6357531391806541.91484153
409454.6357531391806541.91484153409504.6357531391806541.91484153
409554.6357531391806541.91484153409604.6357531391806541.91484153
409654.6357531391806541.91484153409704.6357531391806541.91484153
409754.6357531391806541.91484153409804.6357531391806541.91484153
409854.6357531391806541.91484153409904.6357531391806541.91484153
409954.6357531391806541.91484153410004.6357531391806541.91484153
410054.6357531391806541.91484153410104.6357531391806541.91484153
410154.6357531391806541.91484153410204.6357531391806541.91484153
410254.6357531391806541.91484153410304.6357531391806541.91484153
410354.6357531391806541.91484153410404.6357531391806541.91484153
410454.6357531391806541.91484153408254.6357531391806491.91484153
408304.6357531391806491.91484153408354.6357531391806491.91484153
408404.6357531391806491.91484153408454.6357531391806491.91484153
408504.6357531391806491.91484153408554.6357531391806491.91484153
408604.6357531391806491.91484153408654.6357531391806491.91484153
408704.6357531391806491.91484153408754.6357531391806491.91484153
408804.6357531391806491.91484153408854.6357531391806491.91484153
408904.6357531391806491.91484153408954.6357531391806491.91484153
409054.6357531391806491.91484153409104.6357531391806491.91484153
409154.6357531391806491.91484153409204.6357531391806491.91484153
409254.6357531391806491.91484153409304.6357531391806491.91484153
409354.6357531391806491.91484153409404.6357531391806491.91484153
409454.6357531391806491.91484153409504.6357531391806491.91484153
409554.6357531391806491.91484153409604.6357531391806491.91484153
409654.6357531391806491.91484153409704.6357531391806491.91484153
409754.6357531391806491.91484153409804.6357531391806491.91484153
409854.6357531391806491.91484153409904.6357531391806491.91484153
409954.6357531391806491.91484153410004.6357531391806491.91484153
410054.6357531391806491.91484153410104.6357531391806491.91484153
410154.6357531391806491.91484153410204.6357531391806491.91484153
410254.6357531391806491.91484153410304.6357531391806491.91484153
410354.6357531391806491.91484153410404.6357531391806491.91484153
410454.6357531391806491.91484153406454.6357531391806441.91484153
408204.6357531391806441.91484153408254.6357531391806441.91484153
408304.6357531391806441.91484153408354.6357531391806441.91484153
408404.6357531391806441.91484153408454.6357531391806441.91484153
408504.6357531391806441.91484153408554.6357531391806441.91484153
408604.6357531391806441.91484153408654.6357531391806441.91484153
408704.6357531391806441.91484153408754.6357531391806441.91484153
408804.6357531391806441.91484153408854.6357531391806441.91484153
408904.6357531391806441.91484153408954.6357531391806441.91484153
409054.6357531391806441.91484153409104.6357531391806441.91484153
409154.6357531391806441.91484153409204.6357531391806441.91484153
409254.6357531391806441.91484153409304.6357531391806441.91484153
409354.6357531391806441.91484153409404.6357531391806441.91484153
409454.6357531391806441.91484153409504.6357531391806441.91484153
409554.6357531391806441.91484153409604.6357531391806441.91484153
409654.6357531391806441.91484153409704.6357531391806441.91484153
409754.6357531391806441.91484153409804.6357531391806441.91484153
409854.6357531391806441.91484153409904.6357531391806441.91484153
409954.6357531391806441.91484153410004.6357531391806441.91484153
410054.6357531391806441.91484153410104.6357531391806441.91484153
410154.6357531391806441.91484153410204.6357531391806441.91484153
410254.6357531391806441.91484153410304.6357531391806441.91484153
410354.6357531391806441.91484153410404.6357531391806441.91484153
410454.6357531391806441.91484153406304.6357531391806391.91484153
406354.6357531391806391.91484153406404.6357531391806391.91484153
406454.6357531391806391.91484153406504.6357531391806391.91484153
408204.6357531391806391.91484153408254.6357531391806391.91484153
408304.6357531391806391.91484153408354.6357531391806391.91484153
408404.6357531391806391.91484153408454.6357531391806391.91484153
408504.6357531391806391.91484153408554.6357531391806391.91484153
408604.6357531391806391.91484153408654.6357531391806391.91484153
408704.6357531391806391.91484153408754.6357531391806391.91484153
408804.6357531391806391.91484153408854.6357531391806391.91484153
408904.6357531391806391.91484153408954.6357531391806391.91484153
409054.6357531391806391.91484153409104.6357531391806391.91484153
409154.6357531391806391.91484153409204.6357531391806391.91484153
409254.6357531391806391.91484153409304.6357531391806391.91484153
409354.6357531391806391.91484153409404.6357531391806391.91484153
409454.6357531391806391.91484153409504.6357531391806391.91484153
409554.6357531391806391.91484153409604.6357531391806391.91484153
409654.6357531391806391.91484153409704.6357531391806391.91484153
409754.6357531391806391.91484153409804.6357531391806391.91484153
409854.6357531391806391.91484153409904.6357531391806391.91484153
409954.6357531391806391.91484153410004.6357531391806391.91484153
410054.6357531391806391.91484153410104.6357531391806391.91484153
410154.6357531391806391.91484153410204.6357531391806391.91484153
410254.6357531391806391.91484153410304.6357531391806391.91484153
410354.6357531391806391.91484153410404.6357531391806391.91484153
406154.6357531391806341.91484153406204.6357531391806341.91484153
406254.6357531391806341.91484153406304.6357531391806341.91484153
406354.6357531391806341.91484153406404.6357531391806341.91484153
406454.6357531391806341.91484153406504.6357531391806341.91484153
406554.6357531391806341.91484153406604.6357531391806341.91484153
408154.6357531391806341.91484153408204.6357531391806341.91484153
408254.6357531391806341.91484153408304.6357531391806341.91484153
408354.6357531391806341.91484153408404.6357531391806341.91484153
408454.6357531391806341.91484153408504.6357531391806341.91484153
408554.6357531391806341.91484153408604.6357531391806341.91484153
408654.6357531391806341.91484153408704.6357531391806341.91484153
408754.6357531391806341.91484153408804.6357531391806341.91484153
408854.6357531391806341.91484153408904.6357531391806341.91484153
409054.6357531391806341.91484153409104.6357531391806341.91484153
409154.6357531391806341.91484153409204.6357531391806341.91484153
409254.6357531391806341.91484153409304.6357531391806341.91484153
409354.6357531391806341.91484153409404.6357531391806341.91484153
409454.6357531391806341.91484153409504.6357531391806341.91484153
409554.6357531391806341.91484153409604.6357531391806341.91484153
409654.6357531391806341.91484153409704.6357531391806341.91484153
409754.6357531391806341.91484153409804.6357531391806341.91484153
409854.6357531391806341.91484153409904.6357531391806341.91484153
409954.6357531391806341.91484153410004.6357531391806341.91484153
410054.6357531391806341.91484153410104.6357531391806341.91484153
410154.6357531391806341.91484153410204.6357531391806341.91484153
410254.6357531391806341.91484153410304.6357531391806341.91484153
410354.6357531391806341.91484153406004.6357531391806291.91484153
406054.6357531391806291.91484153406104.6357531391806291.91484153
406154.6357531391806291.91484153406204.6357531391806291.91484153
406254.6357531391806291.91484153406304.6357531391806291.91484153
406354.6357531391806291.91484153406404.6357531391806291.91484153
406454.6357531391806291.91484153406504.6357531391806291.91484153
406554.6357531391806291.91484153406604.6357531391806291.91484153
406654.6357531391806291.91484153408154.6357531391806291.91484153
408204.6357531391806291.91484153408254.6357531391806291.91484153
408304.6357531391806291.91484153408354.6357531391806291.91484153
408404.6357531391806291.91484153408454.6357531391806291.91484153
408504.6357531391806291.91484153408554.6357531391806291.91484153
408604.6357531391806291.91484153408654.6357531391806291.91484153
408704.6357531391806291.91484153408754.6357531391806291.91484153
408804.6357531391806291.91484153408854.6357531391806291.91484153
408904.6357531391806291.91484153409054.6357531391806291.91484153
409104.6357531391806291.91484153409154.6357531391806291.91484153
409204.6357531391806291.91484153409254.6357531391806291.91484153
409304.6357531391806291.91484153409354.6357531391806291.91484153
409404.6357531391806291.91484153409454.6357531391806291.91484153
409504.6357531391806291.91484153409554.6357531391806291.91484153
409604.6357531391806291.91484153409654.6357531391806291.91484153
409704.6357531391806291.91484153409754.6357531391806291.91484153
409804.6357531391806291.91484153409854.6357531391806291.91484153
409904.6357531391806291.91484153409954.6357531391806291.91484153
410004.6357531391806291.91484153410054.6357531391806291.91484153
410104.6357531391806291.91484153410154.6357531391806291.91484153
410204.6357531391806291.91484153410254.6357531391806291.91484153
410304.6357531391806291.91484153410354.6357531391806291.91484153
405854.6357531391806241.91484153405904.6357531391806241.91484153
405954.6357531391806241.91484153406004.6357531391806241.91484153
406054.6357531391806241.91484153406104.6357531391806241.91484153
406154.6357531391806241.91484153406204.6357531391806241.91484153
406254.6357531391806241.91484153406304.6357531391806241.91484153
406354.6357531391806241.91484153406404.6357531391806241.91484153
406454.6357531391806241.91484153406504.6357531391806241.91484153
406554.6357531391806241.91484153406604.6357531391806241.91484153
406654.6357531391806241.91484153406704.6357531391806241.91484153
406754.6357531391806241.91484153408154.6357531391806241.91484153
408204.6357531391806241.91484153408254.6357531391806241.91484153
408304.6357531391806241.91484153408354.6357531391806241.91484153
408404.6357531391806241.91484153408454.6357531391806241.91484153
408504.6357531391806241.91484153408554.6357531391806241.91484153
408604.6357531391806241.91484153408654.6357531391806241.91484153
408704.6357531391806241.91484153408754.6357531391806241.91484153
408804.6357531391806241.91484153408854.6357531391806241.91484153
408904.6357531391806241.91484153409054.6357531391806241.91484153
409104.6357531391806241.91484153409154.6357531391806241.91484153
409204.6357531391806241.91484153409254.6357531391806241.91484153
409304.6357531391806241.91484153409354.6357531391806241.91484153
409404.6357531391806241.91484153409454.6357531391806241.91484153
409504.6357531391806241.91484153409554.6357531391806241.91484153
409604.6357531391806241.91484153409654.6357531391806241.91484153
409704.6357531391806241.91484153409754.6357531391806241.91484153
409804.6357531391806241.91484153409854.6357531391806241.91484153
409904.6357531391806241.91484153409954.6357531391806241.91484153
410004.6357531391806241.91484153410054.6357531391806241.91484153
410104.6357531391806241.91484153410154.6357531391806241.91484153
410204.6357531391806241.91484153410254.6357531391806241.91484153
410304.6357531391806241.91484153405654.6357531391806191.91484153
405704.6357531391806191.91484153405754.6357531391806191.91484153
405804.6357531391806191.91484153405854.6357531391806191.91484153
405904.6357531391806191.91484153405954.6357531391806191.91484153
406004.6357531391806191.91484153406054.6357531391806191.91484153
406104.6357531391806191.91484153406154.6357531391806191.91484153
406204.6357531391806191.91484153406254.6357531391806191.91484153
406304.6357531391806191.91484153406354.6357531391806191.91484153
406404.6357531391806191.91484153406454.6357531391806191.91484153
406504.6357531391806191.91484153406554.6357531391806191.91484153
406604.6357531391806191.91484153406654.6357531391806191.91484153
406704.6357531391806191.91484153406754.6357531391806191.91484153
406804.6357531391806191.91484153406854.6357531391806191.91484153
408104.6357531391806191.91484153408154.6357531391806191.91484153
408204.6357531391806191.91484153408254.6357531391806191.91484153
408304.6357531391806191.91484153408354.6357531391806191.91484153
408404.6357531391806191.91484153408454.6357531391806191.91484153
408504.6357531391806191.91484153408554.6357531391806191.91484153
408604.6357531391806191.91484153408654.6357531391806191.91484153
408704.6357531391806191.91484153408754.6357531391806191.91484153
408804.6357531391806191.91484153408854.6357531391806191.91484153
408904.6357531391806191.91484153409004.6357531391806191.91484153
409054.6357531391806191.91484153409104.6357531391806191.91484153
409154.6357531391806191.91484153409204.6357531391806191.91484153
409254.6357531391806191.91484153409304.6357531391806191.91484153
409354.6357531391806191.91484153409404.6357531391806191.91484153
409454.6357531391806191.91484153409504.6357531391806191.91484153
409554.6357531391806191.91484153409604.6357531391806191.91484153
409654.6357531391806191.91484153409704.6357531391806191.91484153
409754.6357531391806191.91484153409804.6357531391806191.91484153
409854.6357531391806191.91484153409904.6357531391806191.91484153
409954.6357531391806191.91484153410004.6357531391806191.91484153
410054.6357531391806191.91484153410104.6357531391806191.91484153
410154.6357531391806191.91484153410204.6357531391806191.91484153
410254.6357531391806191.91484153404554.6357531391806141.91484153
404604.6357531391806141.91484153404654.6357531391806141.91484153
404704.6357531391806141.91484153404754.6357531391806141.91484153
404804.6357531391806141.91484153404854.6357531391806141.91484153
404904.6357531391806141.91484153404954.6357531391806141.91484153
405004.6357531391806141.91484153405504.6357531391806141.91484153
405554.6357531391806141.91484153405604.6357531391806141.91484153
405654.6357531391806141.91484153405704.6357531391806141.91484153
405754.6357531391806141.91484153405804.6357531391806141.91484153
405854.6357531391806141.91484153405904.6357531391806141.91484153
405954.6357531391806141.91484153406004.6357531391806141.91484153
406054.6357531391806141.91484153406104.6357531391806141.91484153
406154.6357531391806141.91484153406204.6357531391806141.91484153
406254.6357531391806141.91484153406304.6357531391806141.91484153
406354.6357531391806141.91484153406404.6357531391806141.91484153
406454.6357531391806141.91484153406504.6357531391806141.91484153
406554.6357531391806141.91484153406604.6357531391806141.91484153
406654.6357531391806141.91484153406704.6357531391806141.91484153
406754.6357531391806141.91484153406804.6357531391806141.91484153
406854.6357531391806141.91484153406904.6357531391806141.91484153
408104.6357531391806141.91484153408154.6357531391806141.91484153
408204.6357531391806141.91484153408254.6357531391806141.91484153
408304.6357531391806141.91484153408354.6357531391806141.91484153
408404.6357531391806141.91484153408454.6357531391806141.91484153
408504.6357531391806141.91484153408554.6357531391806141.91484153
408604.6357531391806141.91484153408654.6357531391806141.91484153
408704.6357531391806141.91484153408754.6357531391806141.91484153
408804.6357531391806141.91484153408854.6357531391806141.91484153
408904.6357531391806141.91484153409004.6357531391806141.91484153
409054.6357531391806141.91484153409104.6357531391806141.91484153