Geom Title=channel
Program Version=5.07
Viewing Rectangle= 259101 , 271093.1875 , 4521837 , 4519219.8125 

Storage Area=channel         ,264601,4521024.5
Storage Area Surface Line= 5 
         259601.        4521337.                
         269601.        4521337.                
         269601.        4520712.                
         259601.        4520712.                
         259601.        4521337.                
Storage Area Type= 1 
Storage Area Area=
Storage Area Min Elev=
Storage Area Is2D=-1
Storage Area Point Generation Data=0,0,50,50
Storage Area 2D Points= 2400 
         259626.        4521312.         259676.        4521312.
         259726.        4521312.         259776.        4521312.
         259826.        4521312.         259876.        4521312.
         259926.        4521312.         259976.        4521312.
         260026.        4521312.         260076.        4521312.
         260126.        4521312.         260176.        4521312.
         260226.        4521312.         260276.        4521312.
         260326.        4521312.         260376.        4521312.
         260426.        4521312.         260476.        4521312.
         260526.        4521312.         260576.        4521312.
         260626.        4521312.         260676.        4521312.
         260726.        4521312.         260776.        4521312.
         260826.        4521312.         260876.        4521312.
         260926.        4521312.         260976.        4521312.
         261026.        4521312.         261076.        4521312.
         261126.        4521312.         261176.        4521312.
         261226.        4521312.         261276.        4521312.
         261326.        4521312.         261376.        4521312.
         261426.        4521312.         261476.        4521312.
         261526.        4521312.         261576.        4521312.
         261626.        4521312.         261676.        4521312.
         261726.        4521312.         261776.        4521312.
         261826.        4521312.         261876.        4521312.
         261926.        4521312.         261976.        4521312.
         262026.        4521312.         262076.        4521312.
         262126.        4521312.         262176.        4521312.
         262226.        4521312.         262276.        4521312.
         262326.        4521312.         262376.        4521312.
         262426.        4521312.         262476.        4521312.
         262526.        4521312.         262576.        4521312.
         262626.        4521312.         262676.        4521312.
         262726.        4521312.         262776.        4521312.
         262826.        4521312.         262876.        4521312.
         262926.        4521312.         262976.        4521312.
         263026.        4521312.         263076.        4521312.
         263126.        4521312.         263176.        4521312.
         263226.        4521312.         263276.        4521312.
         263326.        4521312.         263376.        4521312.
         263426.        4521312.         263476.        4521312.
         263526.        4521312.         263576.        4521312.
         263626.        4521312.         263676.        4521312.
         263726.        4521312.         263776.        4521312.
         263826.        4521312.         263876.        4521312.
         263926.        4521312.         263976.        4521312.
         264026.        4521312.         264076.        4521312.
         264126.        4521312.         264176.        4521312.
         264226.        4521312.         264276.        4521312.
         264326.        4521312.         264376.        4521312.
         264426.        4521312.         264476.        4521312.
         264526.        4521312.         264576.        4521312.
         264626.        4521312.         264676.        4521312.
         264726.        4521312.         264776.        4521312.
         264826.        4521312.         264876.        4521312.
         264926.        4521312.         264976.        4521312.
         265026.        4521312.         265076.        4521312.
         265126.        4521312.         265176.        4521312.
         265226.        4521312.         265276.        4521312.
         265326.        4521312.         265376.        4521312.
         265426.        4521312.         265476.        4521312.
         265526.        4521312.         265576.        4521312.
         265626.        4521312.         265676.        4521312.
         265726.        4521312.         265776.        4521312.
         265826.        4521312.         265876.        4521312.
         265926.        4521312.         265976.        4521312.
         266026.        4521312.         266076.        4521312.
         266126.        4521312.         266176.        4521312.
         266226.        4521312.         266276.        4521312.
         266326.        4521312.         266376.        4521312.
         266426.        4521312.         266476.        4521312.
         266526.        4521312.         266576.        4521312.
         266626.        4521312.         266676.        4521312.
         266726.        4521312.         266776.        4521312.
         266826.        4521312.         266876.        4521312.
         266926.        4521312.         266976.        4521312.
         267026.        4521312.         267076.        4521312.
         267126.        4521312.         267176.        4521312.
         267226.        4521312.         267276.        4521312.
         267326.        4521312.         267376.        4521312.
         267426.        4521312.         267476.        4521312.
         267526.        4521312.         267576.        4521312.
         267626.        4521312.         267676.        4521312.
         267726.        4521312.         267776.        4521312.
         267826.        4521312.         267876.        4521312.
         267926.        4521312.         267976.        4521312.
         268026.        4521312.         268076.        4521312.
         268126.        4521312.         268176.        4521312.
         268226.        4521312.         268276.        4521312.
         268326.        4521312.         268376.        4521312.
         268426.        4521312.         268476.        4521312.
         268526.        4521312.         268576.        4521312.
         268626.        4521312.         268676.        4521312.
         268726.        4521312.         268776.        4521312.
         268826.        4521312.         268876.        4521312.
         268926.        4521312.         268976.        4521312.
         269026.        4521312.         269076.        4521312.
         269126.        4521312.         269176.        4521312.
         269226.        4521312.         269276.        4521312.
         269326.        4521312.         269376.        4521312.
         269426.        4521312.         269476.        4521312.
         269526.        4521312.         269576.        4521312.
         259626.        4521262.         259676.        4521262.
         259726.        4521262.         259776.        4521262.
         259826.        4521262.         259876.        4521262.
         259926.        4521262.         259976.        4521262.
         260026.        4521262.         260076.        4521262.
         260126.        4521262.         260176.        4521262.
         260226.        4521262.         260276.        4521262.
         260326.        4521262.         260376.        4521262.
         260426.        4521262.         260476.        4521262.
         260526.        4521262.         260576.        4521262.
         260626.        4521262.         260676.        4521262.
         260726.        4521262.         260776.        4521262.
         260826.        4521262.         260876.        4521262.
         260926.        4521262.         260976.        4521262.
         261026.        4521262.         261076.        4521262.
         261126.        4521262.         261176.        4521262.
         261226.        4521262.         261276.        4521262.
         261326.        4521262.         261376.        4521262.
         261426.        4521262.         261476.        4521262.
         261526.        4521262.         261576.        4521262.
         261626.        4521262.         261676.        4521262.
         261726.        4521262.         261776.        4521262.
         261826.        4521262.         261876.        4521262.
         261926.        4521262.         261976.        4521262.
         262026.        4521262.         262076.        4521262.
         262126.        4521262.         262176.        4521262.
         262226.        4521262.         262276.        4521262.
         262326.        4521262.         262376.        4521262.
         262426.        4521262.         262476.        4521262.
         262526.        4521262.         262576.        4521262.
         262626.        4521262.         262676.        4521262.
         262726.        4521262.         262776.        4521262.
         262826.        4521262.         262876.        4521262.
         262926.        4521262.         262976.        4521262.
         263026.        4521262.         263076.        4521262.
         263126.        4521262.         263176.        4521262.
         263226.        4521262.         263276.        4521262.
         263326.        4521262.         263376.        4521262.
         263426.        4521262.         263476.        4521262.
         263526.        4521262.         263576.        4521262.
         263626.        4521262.         263676.        4521262.
         263726.        4521262.         263776.        4521262.
         263826.        4521262.         263876.        4521262.
         263926.        4521262.         263976.        4521262.
         264026.        4521262.         264076.        4521262.
         264126.        4521262.         264176.        4521262.
         264226.        4521262.         264276.        4521262.
         264326.        4521262.         264376.        4521262.
         264426.        4521262.         264476.        4521262.
         264526.        4521262.         264576.        4521262.
         264626.        4521262.         264676.        4521262.
         264726.        4521262.         264776.        4521262.
         264826.        4521262.         264876.        4521262.
         264926.        4521262.         264976.        4521262.
         265026.        4521262.         265076.        4521262.
         265126.        4521262.         265176.        4521262.
         265226.        4521262.         265276.        4521262.
         265326.        4521262.         265376.        4521262.
         265426.        4521262.         265476.        4521262.
         265526.        4521262.         265576.        4521262.
         265626.        4521262.         265676.        4521262.
         265726.        4521262.         265776.        4521262.
         265826.        4521262.         265876.        4521262.
         265926.        4521262.         265976.        4521262.
         266026.        4521262.         266076.        4521262.
         266126.        4521262.         266176.        4521262.
         266226.        4521262.         266276.        4521262.
         266326.        4521262.         266376.        4521262.
         266426.        4521262.         266476.        4521262.
         266526.        4521262.         266576.        4521262.
         266626.        4521262.         266676.        4521262.
         266726.        4521262.         266776.        4521262.
         266826.        4521262.         266876.        4521262.
         266926.        4521262.         266976.        4521262.
         267026.        4521262.         267076.        4521262.
         267126.        4521262.         267176.        4521262.
         267226.        4521262.         267276.        4521262.
         267326.        4521262.         267376.        4521262.
         267426.        4521262.         267476.        4521262.
         267526.        4521262.         267576.        4521262.
         267626.        4521262.         267676.        4521262.
         267726.        4521262.         267776.        4521262.
         267826.        4521262.         267876.        4521262.
         267926.        4521262.         267976.        4521262.
         268026.        4521262.         268076.        4521262.
         268126.        4521262.         268176.        4521262.
         268226.        4521262.         268276.        4521262.
         268326.        4521262.         268376.        4521262.
         268426.        4521262.         268476.        4521262.
         268526.        4521262.         268576.        4521262.
         268626.        4521262.         268676.        4521262.
         268726.        4521262.         268776.        4521262.
         268826.        4521262.         268876.        4521262.
         268926.        4521262.         268976.        4521262.
         269026.        4521262.         269076.        4521262.
         269126.        4521262.         269176.        4521262.
         269226.        4521262.         269276.        4521262.
         269326.        4521262.         269376.        4521262.
         269426.        4521262.         269476.        4521262.
         269526.        4521262.         269576.        4521262.
         259626.        4521212.         259676.        4521212.
         259726.        4521212.         259776.        4521212.
         259826.        4521212.         259876.        4521212.
         259926.        4521212.         259976.        4521212.
         260026.        4521212.         260076.        4521212.
         260126.        4521212.         260176.        4521212.
         260226.        4521212.         260276.        4521212.
         260326.        4521212.         260376.        4521212.
         260426.        4521212.         260476.        4521212.
         260526.        4521212.         260576.        4521212.
         260626.        4521212.         260676.        4521212.
         260726.        4521212.         260776.        4521212.
         260826.        4521212.         260876.        4521212.
         260926.        4521212.         260976.        4521212.
         261026.        4521212.         261076.        4521212.
         261126.        4521212.         261176.        4521212.
         261226.        4521212.         261276.        4521212.
         261326.        4521212.         261376.        4521212.
         261426.        4521212.         261476.        4521212.
         261526.        4521212.         261576.        4521212.
         261626.        4521212.         261676.        4521212.
         261726.        4521212.         261776.        4521212.
         261826.        4521212.         261876.        4521212.
         261926.        4521212.         261976.        4521212.
         262026.        4521212.         262076.        4521212.
         262126.        4521212.         262176.        4521212.
         262226.        4521212.         262276.        4521212.
         262326.        4521212.         262376.        4521212.
         262426.        4521212.         262476.        4521212.
         262526.        4521212.         262576.        4521212.
         262626.        4521212.         262676.        4521212.
         262726.        4521212.         262776.        4521212.
         262826.        4521212.         262876.        4521212.
         262926.        4521212.         262976.        4521212.
         263026.        4521212.         263076.        4521212.
         263126.        4521212.         263176.        4521212.
         263226.        4521212.         263276.        4521212.
         263326.        4521212.         263376.        4521212.
         263426.        4521212.         263476.        4521212.
         263526.        4521212.         263576.        4521212.
         263626.        4521212.         263676.        4521212.
         263726.        4521212.         263776.        4521212.
         263826.        4521212.         263876.        4521212.
         263926.        4521212.         263976.        4521212.
         264026.        4521212.         264076.        4521212.
         264126.        4521212.         264176.        4521212.
         264226.        4521212.         264276.        4521212.
         264326.        4521212.         264376.        4521212.
         264426.        4521212.         264476.        4521212.
         264526.        4521212.         264576.        4521212.
         264626.        4521212.         264676.        4521212.
         264726.        4521212.         264776.        4521212.
         264826.        4521212.         264876.        4521212.
         264926.        4521212.         264976.        4521212.
         265026.        4521212.         265076.        4521212.
         265126.        4521212.         265176.        4521212.
         265226.        4521212.         265276.        4521212.
         265326.        4521212.         265376.        4521212.
         265426.        4521212.         265476.        4521212.
         265526.        4521212.         265576.        4521212.
         265626.        4521212.         265676.        4521212.
         265726.        4521212.         265776.        4521212.
         265826.        4521212.         265876.        4521212.
         265926.        4521212.         265976.        4521212.
         266026.        4521212.         266076.        4521212.
         266126.        4521212.         266176.        4521212.
         266226.        4521212.         266276.        4521212.
         266326.        4521212.         266376.        4521212.
         266426.        4521212.         266476.        4521212.
         266526.        4521212.         266576.        4521212.
         266626.        4521212.         266676.        4521212.
         266726.        4521212.         266776.        4521212.
         266826.        4521212.         266876.        4521212.
         266926.        4521212.         266976.        4521212.
         267026.        4521212.         267076.        4521212.
         267126.        4521212.         267176.        4521212.
         267226.        4521212.         267276.        4521212.
         267326.        4521212.         267376.        4521212.
         267426.        4521212.         267476.        4521212.
         267526.        4521212.         267576.        4521212.
         267626.        4521212.         267676.        4521212.
         267726.        4521212.         267776.        4521212.
         267826.        4521212.         267876.        4521212.
         267926.        4521212.         267976.        4521212.
         268026.        4521212.         268076.        4521212.
         268126.        4521212.         268176.        4521212.
         268226.        4521212.         268276.        4521212.
         268326.        4521212.         268376.        4521212.
         268426.        4521212.         268476.        4521212.
         268526.        4521212.         268576.        4521212.
         268626.        4521212.         268676.        4521212.
         268726.        4521212.         268776.        4521212.
         268826.        4521212.         268876.        4521212.
         268926.        4521212.         268976.        4521212.
         269026.        4521212.         269076.        4521212.
         269126.        4521212.         269176.        4521212.
         269226.        4521212.         269276.        4521212.
         269326.        4521212.         269376.        4521212.
         269426.        4521212.         269476.        4521212.
         269526.        4521212.         269576.        4521212.
         259626.        4521162.         259676.        4521162.
         259726.        4521162.         259776.        4521162.
         259826.        4521162.         259876.        4521162.
         259926.        4521162.         259976.        4521162.
         260026.        4521162.         260076.        4521162.
         260126.        4521162.         260176.        4521162.
         260226.        4521162.         260276.        4521162.
         260326.        4521162.         260376.        4521162.
         260426.        4521162.         260476.        4521162.
         260526.        4521162.         260576.        4521162.
         260626.        4521162.         260676.        4521162.
         260726.        4521162.         260776.        4521162.
         260826.        4521162.         260876.        4521162.
         260926.        4521162.         260976.        4521162.
         261026.        4521162.         261076.        4521162.
         261126.        4521162.         261176.        4521162.
         261226.        4521162.         261276.        4521162.
         261326.        4521162.         261376.        4521162.
         261426.        4521162.         261476.        4521162.
         261526.        4521162.         261576.        4521162.
         261626.        4521162.         261676.        4521162.
         261726.        4521162.         261776.        4521162.
         261826.        4521162.         261876.        4521162.
         261926.        4521162.         261976.        4521162.
         262026.        4521162.         262076.        4521162.
         262126.        4521162.         262176.        4521162.
         262226.        4521162.         262276.        4521162.
         262326.        4521162.         262376.        4521162.
         262426.        4521162.         262476.        4521162.
         262526.        4521162.         262576.        4521162.
         262626.        4521162.         262676.        4521162.
         262726.        4521162.         262776.        4521162.
         262826.        4521162.         262876.        4521162.
         262926.        4521162.         262976.        4521162.
         263026.        4521162.         263076.        4521162.
         263126.        4521162.         263176.        4521162.
         263226.        4521162.         263276.        4521162.
         263326.        4521162.         263376.        4521162.
         263426.        4521162.         263476.        4521162.
         263526.        4521162.         263576.        4521162.
         263626.        4521162.         263676.        4521162.
         263726.        4521162.         263776.        4521162.
         263826.        4521162.         263876.        4521162.
         263926.        4521162.         263976.        4521162.
         264026.        4521162.         264076.        4521162.
         264126.        4521162.         264176.        4521162.
         264226.        4521162.         264276.        4521162.
         264326.        4521162.         264376.        4521162.
         264426.        4521162.         264476.        4521162.
         264526.        4521162.         264576.        4521162.
         264626.        4521162.         264676.        4521162.
         264726.        4521162.         264776.        4521162.
         264826.        4521162.         264876.        4521162.
         264926.        4521162.         264976.        4521162.
         265026.        4521162.         265076.        4521162.
         265126.        4521162.         265176.        4521162.
         265226.        4521162.         265276.        4521162.
         265326.        4521162.         265376.        4521162.
         265426.        4521162.         265476.        4521162.
         265526.        4521162.         265576.        4521162.
         265626.        4521162.         265676.        4521162.
         265726.        4521162.         265776.        4521162.
         265826.        4521162.         265876.        4521162.
         265926.        4521162.         265976.        4521162.
         266026.        4521162.         266076.        4521162.
         266126.        4521162.         266176.        4521162.
         266226.        4521162.         266276.        4521162.
         266326.        4521162.         266376.        4521162.
         266426.        4521162.         266476.        4521162.
         266526.        4521162.         266576.        4521162.
         266626.        4521162.         266676.        4521162.
         266726.        4521162.         266776.        4521162.
         266826.        4521162.         266876.        4521162.
         266926.        4521162.         266976.        4521162.
         267026.        4521162.         267076.        4521162.
         267126.        4521162.         267176.        4521162.
         267226.        4521162.         267276.        4521162.
         267326.        4521162.         267376.        4521162.
         267426.        4521162.         267476.        4521162.
         267526.        4521162.         267576.        4521162.
         267626.        4521162.         267676.        4521162.
         267726.        4521162.         267776.        4521162.
         267826.        4521162.         267876.        4521162.
         267926.        4521162.         267976.        4521162.
         268026.        4521162.         268076.        4521162.
         268126.        4521162.         268176.        4521162.
         268226.        4521162.         268276.        4521162.
         268326.        4521162.         268376.        4521162.
         268426.        4521162.         268476.        4521162.
         268526.        4521162.         268576.        4521162.
         268626.        4521162.         268676.        4521162.
         268726.        4521162.         268776.        4521162.
         268826.        4521162.         268876.        4521162.
         268926.        4521162.         268976.        4521162.
         269026.        4521162.         269076.        4521162.
         269126.        4521162.         269176.        4521162.
         269226.        4521162.         269276.        4521162.
         269326.        4521162.         269376.        4521162.
         269426.        4521162.         269476.        4521162.
         269526.        4521162.         269576.        4521162.
         259626.        4521112.         259676.        4521112.
         259726.        4521112.         259776.        4521112.
         259826.        4521112.         259876.        4521112.
         259926.        4521112.         259976.        4521112.
         260026.        4521112.         260076.        4521112.
         260126.        4521112.         260176.        4521112.
         260226.        4521112.         260276.        4521112.
         260326.        4521112.         260376.        4521112.
         260426.        4521112.         260476.        4521112.
         260526.        4521112.         260576.        4521112.
         260626.        4521112.         260676.        4521112.
         260726.        4521112.         260776.        4521112.
         260826.        4521112.         260876.        4521112.
         260926.        4521112.         260976.        4521112.
         261026.        4521112.         261076.        4521112.
         261126.        4521112.         261176.        4521112.
         261226.        4521112.         261276.        4521112.
         261326.        4521112.         261376.        4521112.
         261426.        4521112.         261476.        4521112.
         261526.        4521112.         261576.        4521112.
         261626.        4521112.         261676.        4521112.
         261726.        4521112.         261776.        4521112.
         261826.        4521112.         261876.        4521112.
         261926.        4521112.         261976.        4521112.
         262026.        4521112.         262076.        4521112.
         262126.        4521112.         262176.        4521112.
         262226.        4521112.         262276.        4521112.
         262326.        4521112.         262376.        4521112.
         262426.        4521112.         262476.        4521112.
         262526.        4521112.         262576.        4521112.
         262626.        4521112.         262676.        4521112.
         262726.        4521112.         262776.        4521112.
         262826.        4521112.         262876.        4521112.
         262926.        4521112.         262976.        4521112.
         263026.        4521112.         263076.        4521112.
         263126.        4521112.         263176.        4521112.
         263226.        4521112.         263276.        4521112.
         263326.        4521112.         263376.        4521112.
         263426.        4521112.         263476.        4521112.
         263526.        4521112.         263576.        4521112.
         263626.        4521112.         263676.        4521112.
         263726.        4521112.         263776.        4521112.
         263826.        4521112.         263876.        4521112.
         263926.        4521112.         263976.        4521112.
         264026.        4521112.         264076.        4521112.
         264126.        4521112.         264176.        4521112.
         264226.        4521112.         264276.        4521112.
         264326.        4521112.         264376.        4521112.
         264426.        4521112.         264476.        4521112.
         264526.        4521112.         264576.        4521112.
         264626.        4521112.         264676.        4521112.
         264726.        4521112.         264776.        4521112.